@<TRIPOS>MOLECULE
obj01
 43 45 0 0 0
SMALL
USER_CHARGES

@<TRIPOS>ATOM
      1 C1         34.5880   50.5400   36.7400 C.3     1  715801111111   -0.1500
      2 C2         35.9160   51.0580   36.8040 C.3     1  715801111111    0.1900
      3 C3         37.0810   50.2570   36.5150 C.3     1  715801111111   -0.1435
      4 C4         36.8900   48.8840   36.1400 C.3     1  715801111111   -0.1500
      5 C5         35.5560   48.3630   36.0770 C.3     1  715801111111    0.1900
      6 C6         34.4320   49.1800   36.3660 C.3     1  715801111111    0.1900
      7 C11        38.4290   50.9030   36.6040 C.3     1  715801111111    0.1435
      8 C12        39.0930   51.0760   35.2230 C.3     1  715801111111    0.2700
      9 C15        40.3800   51.8310   35.4450 C.3     1  715801111111    0.0610
     10 C16        41.5760   51.0710   36.1670 C.2     1  715801111111    0.5690
     11 N19        42.7630   51.8390   36.4340 N.am  715801  0.000715801715801715801715801715801715801   -0.6602
     12 N20        38.2030   51.8460   34.3530 N.3     1  715801111111   -0.9900
     13 O22        41.4170   49.8850   36.5130 O.2     1  715801111111   -0.5700
     14 C25        42.9990   52.7410   35.2820 C.3     1  715801111111    0.3001
     15 C26        44.1670   52.4110   34.3740 C.3     1  715801111111    0.2556
     16 N27        45.3490   51.8910   35.1230 N.pl3   1  715801111111    0.0476
     17 C28        45.3110   51.1800   36.2900 C.3     1  715801111111    0.0065
     18 C29        43.9160   50.8910   36.8830 C.3     1  715801111111    0.4801
     19 C39        46.6690   51.9620   34.8650 C.3     1  715801111111    0.0065
     20 N40        47.3490   51.3310   35.8410 N.pl3   1  715801111111   -0.3381
     21 N41        46.5370   50.8670   36.6880 N.pl3   1  715801111111   -0.3381
     22 C42        47.3330   52.6430   33.6640 C.3     1  715801111111    1.2000
     23 F10        36.0680   52.3270   37.1540 F       1  715801111111   -0.1900
     24 F43        48.6230   52.4720   33.7700 F       1  715801111111   -0.3400
     25 F44        47.0130   53.9300   33.7260 F       1  715801111111   -0.3400
     26 F45        46.8880   52.0850   32.5320 F       1  715801111111   -0.3400
     27 F46        33.2290   48.6840   36.2980 F       1  715801111111   -0.1900
     28 F9         35.3810   47.1130   35.7320 F       1  715801111111   -0.1900
     29 H01        33.7260   51.1660   36.9700 H       1  715801111111    0.1500
     30 H02        37.7450   48.2490   35.9070 H       1  715801111111    0.1500
     31 H03        39.0690   50.2520   37.2000 H       1  715801111111    0.0000
     32 H04        38.3170   51.8850   37.0640 H       1  715801111111    0.0000
     33 H05        39.2880   50.1130   34.7510 H       1  715801111111    0.0000
     34 H06        40.1110   52.6310   36.1340 H       1  715801111111    0.0000
     35 H07        40.7410   52.1510   34.4680 H       1  715801111111    0.0000
     36 H08        38.6800   52.6760   34.0320 H       1  715801111111    0.3600
     37 H09        37.9370   51.2820   33.5590 H       1  715801111111    0.3600
     38 H10        43.2510   53.7040   35.7260 H       1  715801111111    0.0000
     39 H11        42.0960   52.7370   34.6710 H       1  715801111111    0.0000
     40 H12        44.4700   53.3340   33.8790 H       1  715801111111    0.0000
     41 H13        43.8490   51.6560   33.6550 H       1  715801111111    0.0000
     42 H14        43.6410   49.9040   36.5100 H       1  715801111111    0.0000
     43 H15        43.9960   50.9560   37.9680 H       1  715801111111    0.0000
@<TRIPOS>BOND
     1     1     2   ar
     2     1     6   ar
     3     1    29    1
     4     2     3   ar
     5     2    23    1
     6     3     4   ar
     7     3     7    1
     8     4     5   ar
     9     4    30    1
    10     5     6   ar
    11     5    28    1
    12     6    27    1
    13     7     8    1
    14     7    31    1
    15     7    32    1
    16     8     9    1
    17     8    12    1
    18     8    33    1
    19     9    10    1
    20     9    34    1
    21     9    35    1
    22    10    11   am
    23    10    13    2
    24    11    14    1
    25    11    18    1
    26    12    36    1
    27    12    37    1
    28    14    15    1
    29    14    38    1
    30    14    39    1
    31    15    16    1
    32    15    40    1
    33    15    41    1
    34    16    17   ar
    35    16    19   ar
    36    17    18    1
    37    17    21   ar
    38    18    42    1
    39    18    43    1
    40    19    20   ar
    41    19    22    1
    42    20    21   ar
    43    22    24    1
    44    22    25    1
    45    22    26    1
